84
v2o5 my pwscf 1 x 3 x 2 supercell
V  1.7062037670530   0.0000000000000   3.8973880415980
V  1.7062037670530   0.0000000000000   8.2663880415980
V  1.7062037670530   3.5570000000000   3.8973880415980
V  1.7062037670530   3.5570000000000   8.2663880415980
V  1.7062037670530   7.1140000000000   3.8973880415980
V  1.7062037670530   7.1140000000000   8.2663880415980
V  4.0452957613240   1.7785000000000   0.4716064010340
V  4.0452957613240   1.7785000000000   4.8406064010340
V  4.0452957613240   5.3355000000000   0.4716064010340
V  4.0452957613240   5.3355000000000   4.8406064010340
V  4.0452957613240   8.8925000000000   0.4716064010340
V  4.0452957613240   8.8925000000000   4.8406064010340
V  7.4577049288560   1.7785000000000   0.4715998213200
V  7.4577049288560   1.7785000000000   4.8405998213200
V  7.4577049288560   5.3355000000000   0.4715998213200
V  7.4577049288560   5.3355000000000   4.8405998213200
V  7.4577049288560   8.8925000000000   0.4715998213200
V  7.4577049288560   8.8925000000000   4.8405998213200
V  9.7967955427670   0.0000000000000   3.8973931533280
V  9.7967955427670   0.0000000000000   8.2663931533280
V  9.7967955427670   3.5570000000000   3.8973931533280
V  9.7967955427670   3.5570000000000   8.2663931533280
V  9.7967955427670   7.1140000000000   3.8973931533280
V  9.7967955427670   7.1140000000000   8.2663931533280
O  2.0859091352940   1.7785000000000   4.3669355033230
O  2.0859091352940   1.7785000000000   8.7359355033230
O  2.0859091352940   5.3355000000000   4.3669355033230
O  2.0859091352940   5.3355000000000   8.7359355033230
O  2.0859091352940   8.8925000000000   4.3669355033230
O  2.0859091352940   8.8925000000000   8.7359355033230
O  3.6655903930830   0.0000000000000   0.0020648680420
O  3.6655903930830   0.0000000000000   4.3710648680420
O  3.6655903930830   3.5570000000000   0.0020648680420
O  3.6655903930830   3.5570000000000   4.3710648680420
O  3.6655903930830   7.1140000000000   0.0020648680420
O  3.6655903930830   7.1140000000000   4.3710648680420
O  7.8374099750130   0.0000000000000   0.0020648986250
O  7.8374099750130   0.0000000000000   4.3710648986250
O  7.8374099750130   3.5570000000000   0.0020648986250
O  7.8374099750130   3.5570000000000   4.3710648986250
O  7.8374099750130   7.1140000000000   0.0020648986250
O  7.8374099750130   7.1140000000000   4.3710648986250
O  9.4170910487540   1.7785000000000   4.3669359140090
O  9.4170910487540   1.7785000000000   8.7359359140090
O  9.4170910487540   5.3355000000000   4.3669359140090
O  9.4170910487540   5.3355000000000   8.7359359140090
O  9.4170910487540   8.8925000000000   4.3669359140090
O  9.4170910487540   8.8925000000000   8.7359359140090
O  9.8382120137460   0.0000000000000   2.3063320815440
O  9.8382120137460   0.0000000000000   6.6753320815440
O  9.8382120137460   3.5570000000000   2.3063320815440
O  9.8382120137460   3.5570000000000   6.6753320815440
O  9.8382120137460   7.1140000000000   2.3063320815440
O  9.8382120137460   7.1140000000000   6.6753320815440
O  7.4162875606430   1.7785000000000   2.0626737073810
O  7.4162875606430   1.7785000000000   6.4316737073810
O  7.4162875606430   5.3355000000000   2.0626737073810
O  7.4162875606430   5.3355000000000   6.4316737073810
O  7.4162875606430   8.8925000000000   2.0626737073810
O  7.4162875606430   8.8925000000000   6.4316737073810
O  4.0867122323030   1.7785000000000   2.0626685781750
O  4.0867122323030   1.7785000000000   6.4316685781750
O  4.0867122323030   5.3355000000000   2.0626685781750
O  4.0867122323030   5.3355000000000   6.4316685781750
O  4.0867122323030   8.8925000000000   2.0626685781750
O  4.0867122323030   8.8925000000000   6.4316685781750
O  5.7515002760720   1.7785000000000   4.3583304607310
O  5.7515002760720   1.7785000000000   8.7273304607310
O  5.7515002760720   5.3355000000000   4.3583304607310
O  5.7515002760720   5.3355000000000   8.7273304607310
O  5.7515002760720   8.8925000000000   4.3583304607310
O  5.7515002760720   8.8925000000000   8.7273304607310
O -0.0000001840480   0.0000000000000   0.0106700329660
O -0.0000001840480   0.0000000000000   4.3796700329660
O -0.0000001840480   3.5570000000000   0.0106700329660
O -0.0000001840480   3.5570000000000   4.3796700329660
O -0.0000001840480   7.1140000000000   0.0106700329660
O -0.0000001840480   7.1140000000000   4.3796700329660
O  1.6647875261340   0.0000000000000   2.3063361709280
O  1.6647875261340   0.0000000000000   6.6753361709280
O  1.6647875261340   3.5570000000000   2.3063361709280
O  1.6647875261340   3.5570000000000   6.6753361709280
O  1.6647875261340   7.1140000000000   2.3063361709280
O  1.6647875261340   7.1140000000000   6.6753361709280
